<edges>
    <edge id="E1" from="N1" to="N2" priority="1" numLanes="2" speed="13.89"/>
    <edge id="E2" from="N2" to="N4" priority="1" numLanes="2" speed="13.89"/>
    <edge id="E3" from="N4" to="N3" priority="1" numLanes="2" speed="13.89"/>
    <edge id="E4" from="N3" to="N1" priority="1" numLanes="2" speed="13.89"/>
</edges>