<nodes>
    <node id="N1" x="0" y="500" type="traffic_light"/>
    <node id="N2" x="500" y="500" type="traffic_light"/>
    <node id="N3" x="0" y="0" type="traffic_light"/>
    <node id="N4" x="500" y="0" type="traffic_light"/>
</nodes>